# opt freq wb97xd/6-31g(d)

phenol

0 1
 C                  0.57736721   -0.21939953    0.00000000
 C                  1.97252721   -0.21939953    0.00000000
 C                  2.67006521    0.98835147    0.00000000
 C                  1.97241121    2.19686047   -0.00119900
 C                  0.57758621    2.19678247   -0.00167800
 C                 -0.12001479    0.98857647   -0.00068200
 H                  0.02760821   -1.17171653    0.00045000
 H                  2.52203521   -1.17191253    0.00131500
 H                  3.76974521    0.98843147    0.00063400
 H                  2.52261121    3.14900347   -0.00125800
 H                 -1.21961879    0.98875947   -0.00086200
 O                 -0.13772781    3.43501682   -0.00291717
 H                 -0.29678042    3.71231149   -0.90812982

