# opt freq wb97xd/6-31g(d)

phenol

0 1
 C                  1.16786700   -1.18693100    0.00019600
 C                  1.85190200    0.02814900   -0.00030500
 C                  1.12798900    1.21544300   -0.00000200
 C                 -0.26451600    1.19607400    0.00017900
 C                 -0.93952500   -0.02440100    0.00016300
 C                 -0.22051000   -1.22069300    0.00010100
 H                  1.72103400   -2.12175700    0.00055200
 H                  2.93698100    0.04748500   -0.00005600
 H                  1.64514600    2.17057200   -0.00042000
 H                 -0.82355000    2.12970300    0.00012400
 H                 -0.76465600   -2.15935700   -0.00092000
 O                 -2.29787000   -0.11133000   -0.00024900
 H                 -2.67124000    0.77815600    0.00071700

